/*--------------------------------*- C++ -*----------------------------------*\
| =========                 |                                                 |
| \\      /  F ield         | OpenFOAM: The Open Source CFD Toolbox           |
|  \\    /   O peration     | Version:  5.x                                   |
|   \\  /    A nd           | Web:      www.OpenFOAM.org                      |
|    \\/     M anipulation  |                                                 |
\*---------------------------------------------------------------------------*/
/*   Windows 32 and 64 bit porting by blueCAPE: http://www.bluecape.com.pt   *\
|  Based on Windows porting (2.0.x v4) by Symscape: http://www.symscape.com   |
\*---------------------------------------------------------------------------*/
FoamFile
{
    version     2.0;
    format      ascii;
    class       featureEdgeMesh;
    location    "constant/triSurface";
    object      NEMOWing.eMesh;
}
// * * * * * * * * * * * * * * * * * * * * * * * * * * * * * * * * * * * * * //


// points:

201
(
(0.508699 5.05e-006 0.0142344)
(0.508699 5.05e-006 0.0155565)
(0.438401 1.47518 0.0544544)
(0.438401 1.47483 0.0553365)
(0.113018 1.46243 0.0392461)
(0.11247 1.46269 0.0382803)
(0.12191 1.46715 0.0451482)
(0.340243 5.05e-006 0.0514202)
(0.317579 5.05e-006 0.0545335)
(0.000999325 5.05e-006 0.0201126)
(0.000967873 5.05e-006 0.0200293)
(0.381863 5.05e-006 0.0444882)
(0.286386 5.05e-006 0.00906254)
(0.374733 5.05e-006 0.0121309)
(0.378576 5.05e-006 0.0122033)
(0.383613 5.05e-006 0.0441967)
(0.426178 5.05e-006 0.0358128)
(0.257885 5.05e-006 0.0613306)
(0.252916 5.05e-006 0.0616884)
(0.248523 5.05e-006 0.00744363)
(0.30044 5.05e-006 0.0568878)
(0.472023 5.05e-006 0.0139634)
(0.466464 5.05e-006 0.0266016)
(0.445589 5.05e-006 0.0313746)
(0.00603243 5.05e-006 0.00794402)
(0.00751833 5.05e-006 0.00714673)
(0.221851 5.05e-006 0.0639258)
(0.220463 5.05e-006 0.0639757)
(0.140628 5.05e-006 0.00283038)
(0.190811 5.05e-006 0.0650423)
(0.187948 5.05e-006 0.0650277)
(0.163052 5.05e-006 0.0649009)
(0.155425 5.05e-006 0.0645152)
(0.000404811 5.05e-006 0.018538)
(0.000313021 5.05e-006 0.01811)
(0.0678335 5.05e-006 0.0530113)
(0.0590572 5.05e-006 0.0505696)
(0.0488694 5.05e-006 0.0477352)
(0.0582411 5.05e-006 0.000198428)
(0.0859976 5.05e-006 0.000484458)
(0.0434977 5.05e-006 0.0458585)
(0.0534702 5.05e-006 0.000391479)
(0.028332 5.05e-006 0.0400176)
(0.0220748 5.05e-006 0.0372505)
(0.0131797 5.05e-006 0.00491946)
(0.0135245 5.05e-006 0.00479677)
(0.0138334 5.05e-006 0.0326865)
(0.0134564 5.05e-006 0.0324777)
(0.00807336 5.05e-006 0.0286445)
(0.00728652 5.05e-006 0.027894)
(0.00466415 5.05e-006 0.0253927)
(0.00438858 5.05e-006 0.0250493)
(0.00246927 5.05e-006 0.0226578)
(0.00197067 5.05e-006 0.0217945)
(0.000199205 5.05e-006 0.0148954)
(0.000439568 5.05e-006 0.0141144)
(0.000160347 5.05e-006 0.01509)
(0.00869425 5.05e-006 0.00651577)
(0.00935008 5.05e-006 0.00628237)
(0.137501 5.05e-006 0.0636086)
(0.122991 5.05e-006 0.0621256)
(0.118502 5.05e-006 0.00184311)
(0.110507 5.05e-006 0.0608496)
(0.0886704 5.05e-006 0.000512002)
(0.0907639 5.05e-006 0.0577597)
(0.0878862 5.05e-006 0.0573093)
(0.0057562 5.05e-006 0.00815078)
(0.00060901 5.05e-006 0.0190788)
(0.000120917 5.05e-006 0.0172143)
(0.00011536 5.05e-006 0.0171151)
(5.85241e-005 5.05e-006 0.0161004)
(0.000519891 5.05e-006 0.0138535)
(0.000844874 5.05e-006 0.0131851)
(0.00102267 5.05e-006 0.0128194)
(0.0211006 5.05e-006 0.00310046)
(0.0234934 5.05e-006 0.0025647)
(0.0341726 5.05e-006 0.0426006)
(0.0369174 5.05e-006 0.00106127)
(0.0372175 5.05e-006 0.00104913)
(5.80557e-005 5.05e-006 0.0160921)
(0.000159005 5.05e-006 0.0150967)
(0.00136959 5.05e-006 0.0123194)
(0.00198676 5.05e-006 0.0114298)
(0.00264595 5.05e-006 0.0107477)
(0.00412904 5.05e-006 0.00936871)
(0.00358517 5.05e-006 0.00977579)
(0.441499 1.41 0.0153714)
(0.441499 1.41 0.0144195)
(0.184359 1.47344 0.0588176)
(0.185554 1.47341 0.0588939)
(0.438401 1.475 0.0548954)
(0.368823 1.47609 0.0521703)
(0.178437 1.47359 0.0584393)
(0.17903 1.47357 0.0584772)
(0.179623 1.47356 0.058515)
(0.180215 1.47354 0.0585528)
(0.180806 1.47353 0.0585906)
(0.237258 1.47295 0.0600448)
(0.25606 1.473 0.0599107)
(0.282382 1.47695 0.0500254)
(0.257959 1.47703 0.0498408)
(0.187974 1.47334 0.0590485)
(0.189278 1.47331 0.0591318)
(0.19046 1.4733 0.0591574)
(0.181397 1.47351 0.0586283)
(0.181988 1.4735 0.0586661)
(0.183172 1.47347 0.0587417)
(0.275414 1.47305 0.0597726)
(0.287182 1.47309 0.0596886)
(0.293795 1.47685 0.0502937)
(0.438401 1.47492 0.0551078)
(0.430202 1.47472 0.0556058)
(0.398032 1.4743 0.056662)
(0.295252 1.47317 0.0594868)
(0.315487 1.47337 0.0589809)
(0.354205 1.47628 0.0517134)
(0.356708 1.47378 0.0579502)
(0.366484 1.47612 0.0520972)
(0.371485 1.47395 0.0575335)
(0.365051 1.47387 0.0577416)
(0.238479 1.47709 0.0496935)
(0.231543 1.47705 0.0497807)
(0.23281 1.47293 0.0600765)
(0.240296 1.47708 0.0497072)
(0.222846 1.47701 0.0498901)
(0.201962 1.4732 0.0594071)
(0.441046 1.41954 0.0149794)
(0.440913 1.42234 0.0151433)
(0.439475 1.45258 0.0275561)
(0.439348 1.45526 0.0296644)
(0.43879 1.46671 0.0432454)
(0.438866 1.4654 0.0399853)
(0.43879 1.46701 0.04236)
(0.438866 1.46511 0.040873)
(0.438871 1.46499 0.0406943)
(0.438955 1.46325 0.0387458)
(0.439109 1.46002 0.03514)
(0.439118 1.45984 0.034939)
(0.439202 1.45832 0.0320733)
(0.439118 1.4601 0.0340438)
(0.439109 1.46028 0.0342447)
(0.438876 1.4652 0.0396872)
(0.439198 1.45816 0.0330594)
(0.439287 1.45631 0.0315912)
(0.439348 1.45502 0.0305692)
(0.439475 1.45236 0.0284568)
(0.43988 1.44406 0.021916)
(0.43971 1.44765 0.0240885)
(0.439602 1.44992 0.0254613)
(0.439592 1.44993 0.0265202)
(0.439678 1.44812 0.0254228)
(0.43971 1.44745 0.0250113)
(0.43988 1.44388 0.0228388)
(0.439966 1.44225 0.0208172)
(0.43997 1.44201 0.0217008)
(0.440048 1.44038 0.0210045)
(0.440075 1.43981 0.0207622)
(0.440265 1.43597 0.018145)
(0.440075 1.43996 0.0198446)
(0.440048 1.44053 0.020088)
(0.440265 1.43584 0.0190705)
(0.440334 1.4344 0.0184583)
(0.440365 1.43374 0.0181785)
(0.440452 1.43203 0.0168129)
(0.440364 1.43388 0.017257)
(0.440333 1.43453 0.0175298)
(0.440452 1.43192 0.0177413)
(0.440605 1.42871 0.0169721)
(0.440643 1.42792 0.0167825)
(0.440741 1.42595 0.0153555)
(0.440643 1.42801 0.0158497)
(0.440605 1.42881 0.0160401)
(0.44074 1.4259 0.0162957)
(0.440839 1.42382 0.0161752)
(0.440913 1.42228 0.0160852)
(0.441046 1.4195 0.0159236)
(0.10936 1.45988 0.0364898)
(0.105711 1.45737 0.0335305)
(0.102313 1.45493 0.0305834)
(0.0995459 1.45252 0.0282856)
(0.0971338 1.45022 0.0263868)
(0.0950057 1.44802 0.0247987)
(0.105206 1.45761 0.0324967)
(0.108691 1.4602 0.0351822)
(0.117457 1.46483 0.0423844)
(0.116708 1.46504 0.0415537)
(0.112467 1.46263 0.0384803)
(0.121319 1.46735 0.0444428)
(0.117076 1.46491 0.0420589)
(0.126351 1.46949 0.0471038)
(0.123778 1.46845 0.0458007)
(0.121308 1.46739 0.0443144)
(0.116739 1.46516 0.0411694)
(0.121319 1.46741 0.0442499)
(0.0994539 1.45257 0.0280275)
(0.105318 1.45748 0.033015)
(0.0916742 1.44395 0.0214788)
(0.08821 1.43983 0.0197743)
(0.0764857 1.41491 0.0140556)
(0.0760771 1.4125 0.0139412)
(0.0854712 1.43588 0.0179082)
)


// edges:

203
(
(7 8)
(9 10)
(11 7)
(12 13)
(13 14)
(15 11)
(16 15)
(17 18)
(19 12)
(20 17)
(8 20)
(21 0)
(0 1)
(1 22)
(14 21)
(22 23)
(23 16)
(24 25)
(18 26)
(26 27)
(28 19)
(27 29)
(29 30)
(30 31)
(31 32)
(33 34)
(35 36)
(36 37)
(38 39)
(37 40)
(41 38)
(42 43)
(44 45)
(43 46)
(46 47)
(47 48)
(48 49)
(49 50)
(50 51)
(51 52)
(52 53)
(53 9)
(54 55)
(56 54)
(25 57)
(57 58)
(58 44)
(32 59)
(59 60)
(61 28)
(60 62)
(63 61)
(62 64)
(39 63)
(64 65)
(65 35)
(66 24)
(10 67)
(67 33)
(34 68)
(68 69)
(69 70)
(55 71)
(71 72)
(72 73)
(45 74)
(74 75)
(76 42)
(75 77)
(40 76)
(77 78)
(78 41)
(70 79)
(79 80)
(80 56)
(81 82)
(82 83)
(73 81)
(84 66)
(83 85)
(85 84)
(1 86)
(87 0)
(88 89)
(90 2)
(2 91)
(92 93)
(93 94)
(94 95)
(95 96)
(97 98)
(99 100)
(89 101)
(101 102)
(102 103)
(96 104)
(104 105)
(105 106)
(106 88)
(98 107)
(107 108)
(109 99)
(3 110)
(111 3)
(112 111)
(108 113)
(113 114)
(115 109)
(114 116)
(117 115)
(110 90)
(118 112)
(91 117)
(119 118)
(116 119)
(120 121)
(122 97)
(123 120)
(100 123)
(121 124)
(125 122)
(103 125)
(126 127)
(128 129)
(3 130)
(131 132)
(132 2)
(130 133)
(133 134)
(135 136)
(136 137)
(138 139)
(139 140)
(140 141)
(141 131)
(134 135)
(129 138)
(142 143)
(143 144)
(144 145)
(146 147)
(147 148)
(148 128)
(137 142)
(149 150)
(150 151)
(151 152)
(153 146)
(145 149)
(154 155)
(155 156)
(157 158)
(158 159)
(159 153)
(152 154)
(160 161)
(161 162)
(156 160)
(163 164)
(164 165)
(165 157)
(166 167)
(167 168)
(169 170)
(170 171)
(171 163)
(162 166)
(127 169)
(172 173)
(173 174)
(174 175)
(175 86)
(168 172)
(87 126)
(176 177)
(178 179)
(180 181)
(182 183)
(5 183)
(184 4)
(185 186)
(185 187)
(6 184)
(188 4)
(6 188)
(189 190)
(191 190)
(5 192)
(193 192)
(180 194)
(178 195)
(176 4)
(196 197)
(198 199)
(197 200)
(182 5)
(187 186)
(6 4)
(193 5)
(181 194)
(179 195)
(177 4)
(196 200)
)

// * * * * * * * * * * * * * * * * * * * * * * * * * * * * * * * * * * * * * //


// ************************************************************************* //
