/*--------------------------------*- C++ -*----------------------------------*\
| =========                 |                                                 |
| \\      /  F ield         | OpenFOAM: The Open Source CFD Toolbox           |
|  \\    /   O peration     | Version:  5.x                                   |
|   \\  /    A nd           | Web:      www.OpenFOAM.org                      |
|    \\/     M anipulation  |                                                 |
\*---------------------------------------------------------------------------*/
/*   Windows 32 and 64 bit porting by blueCAPE: http://www.bluecape.com.pt   *\
|  Based on Windows porting (2.0.x v4) by Symscape: http://www.symscape.com   |
\*---------------------------------------------------------------------------*/
FoamFile
{
    version     2.0;
    format      ascii;
    class       extendedFeatureEdgeMesh;
    location    "constant/extendedFeatureEdgeMesh";
    object      NEMOWing.extendedFeatureEdgeMesh;
}
// * * * * * * * * * * * * * * * * * * * * * * * * * * * * * * * * * * * * * //

// points

201
(
(0.508699 5.05e-006 0.0142344)
(0.508699 5.05e-006 0.0155565)
(0.438401 1.47518 0.0544544)
(0.438401 1.47483 0.0553365)
(0.113018 1.46243 0.0392461)
(0.11247 1.46269 0.0382803)
(0.12191 1.46715 0.0451482)
(0.340243 5.05e-006 0.0514202)
(0.317579 5.05e-006 0.0545335)
(0.000999325 5.05e-006 0.0201126)
(0.000967873 5.05e-006 0.0200293)
(0.381863 5.05e-006 0.0444882)
(0.286386 5.05e-006 0.00906254)
(0.374733 5.05e-006 0.0121309)
(0.378576 5.05e-006 0.0122033)
(0.383613 5.05e-006 0.0441967)
(0.426178 5.05e-006 0.0358128)
(0.257885 5.05e-006 0.0613306)
(0.252916 5.05e-006 0.0616884)
(0.248523 5.05e-006 0.00744363)
(0.30044 5.05e-006 0.0568878)
(0.472023 5.05e-006 0.0139634)
(0.466464 5.05e-006 0.0266016)
(0.445589 5.05e-006 0.0313746)
(0.00603243 5.05e-006 0.00794402)
(0.00751833 5.05e-006 0.00714673)
(0.221851 5.05e-006 0.0639258)
(0.220463 5.05e-006 0.0639757)
(0.140628 5.05e-006 0.00283038)
(0.190811 5.05e-006 0.0650423)
(0.187948 5.05e-006 0.0650277)
(0.163052 5.05e-006 0.0649009)
(0.155425 5.05e-006 0.0645152)
(0.000404811 5.05e-006 0.018538)
(0.000313021 5.05e-006 0.01811)
(0.0678335 5.05e-006 0.0530113)
(0.0590572 5.05e-006 0.0505696)
(0.0488694 5.05e-006 0.0477352)
(0.0582411 5.05e-006 0.000198428)
(0.0859976 5.05e-006 0.000484458)
(0.0434977 5.05e-006 0.0458585)
(0.0534702 5.05e-006 0.000391479)
(0.028332 5.05e-006 0.0400176)
(0.0220748 5.05e-006 0.0372505)
(0.0131797 5.05e-006 0.00491946)
(0.0135245 5.05e-006 0.00479677)
(0.0138334 5.05e-006 0.0326865)
(0.0134564 5.05e-006 0.0324777)
(0.00807336 5.05e-006 0.0286445)
(0.00728652 5.05e-006 0.027894)
(0.00466415 5.05e-006 0.0253927)
(0.00438858 5.05e-006 0.0250493)
(0.00246927 5.05e-006 0.0226578)
(0.00197067 5.05e-006 0.0217945)
(0.000199205 5.05e-006 0.0148954)
(0.000439568 5.05e-006 0.0141144)
(0.000160347 5.05e-006 0.01509)
(0.00869425 5.05e-006 0.00651577)
(0.00935008 5.05e-006 0.00628237)
(0.137501 5.05e-006 0.0636086)
(0.122991 5.05e-006 0.0621256)
(0.118502 5.05e-006 0.00184311)
(0.110507 5.05e-006 0.0608496)
(0.0886704 5.05e-006 0.000512002)
(0.0907639 5.05e-006 0.0577597)
(0.0878862 5.05e-006 0.0573093)
(0.0057562 5.05e-006 0.00815078)
(0.00060901 5.05e-006 0.0190788)
(0.000120917 5.05e-006 0.0172143)
(0.00011536 5.05e-006 0.0171151)
(5.85241e-005 5.05e-006 0.0161004)
(0.000519891 5.05e-006 0.0138535)
(0.000844874 5.05e-006 0.0131851)
(0.00102267 5.05e-006 0.0128194)
(0.0211006 5.05e-006 0.00310046)
(0.0234934 5.05e-006 0.0025647)
(0.0341726 5.05e-006 0.0426006)
(0.0369174 5.05e-006 0.00106127)
(0.0372175 5.05e-006 0.00104913)
(5.80557e-005 5.05e-006 0.0160921)
(0.000159005 5.05e-006 0.0150967)
(0.00136959 5.05e-006 0.0123194)
(0.00198676 5.05e-006 0.0114298)
(0.00264595 5.05e-006 0.0107477)
(0.00412904 5.05e-006 0.00936871)
(0.00358517 5.05e-006 0.00977579)
(0.441499 1.41 0.0153714)
(0.441499 1.41 0.0144195)
(0.184359 1.47344 0.0588176)
(0.185554 1.47341 0.0588939)
(0.438401 1.475 0.0548954)
(0.368823 1.47609 0.0521703)
(0.178437 1.47359 0.0584393)
(0.17903 1.47357 0.0584772)
(0.179623 1.47356 0.058515)
(0.180215 1.47354 0.0585528)
(0.180806 1.47353 0.0585906)
(0.237258 1.47295 0.0600448)
(0.25606 1.473 0.0599107)
(0.282382 1.47695 0.0500254)
(0.257959 1.47703 0.0498408)
(0.187974 1.47334 0.0590485)
(0.189278 1.47331 0.0591318)
(0.19046 1.4733 0.0591574)
(0.181397 1.47351 0.0586283)
(0.181988 1.4735 0.0586661)
(0.183172 1.47347 0.0587417)
(0.275414 1.47305 0.0597726)
(0.287182 1.47309 0.0596886)
(0.293795 1.47685 0.0502937)
(0.438401 1.47492 0.0551078)
(0.430202 1.47472 0.0556058)
(0.398032 1.4743 0.056662)
(0.295252 1.47317 0.0594868)
(0.315487 1.47337 0.0589809)
(0.354205 1.47628 0.0517134)
(0.356708 1.47378 0.0579502)
(0.366484 1.47612 0.0520972)
(0.371485 1.47395 0.0575335)
(0.365051 1.47387 0.0577416)
(0.238479 1.47709 0.0496935)
(0.231543 1.47705 0.0497807)
(0.23281 1.47293 0.0600765)
(0.240296 1.47708 0.0497072)
(0.222846 1.47701 0.0498901)
(0.201962 1.4732 0.0594071)
(0.441046 1.41954 0.0149794)
(0.440913 1.42234 0.0151433)
(0.439475 1.45258 0.0275561)
(0.439348 1.45526 0.0296644)
(0.43879 1.46671 0.0432454)
(0.438866 1.4654 0.0399853)
(0.43879 1.46701 0.04236)
(0.438866 1.46511 0.040873)
(0.438871 1.46499 0.0406943)
(0.438955 1.46325 0.0387458)
(0.439109 1.46002 0.03514)
(0.439118 1.45984 0.034939)
(0.439202 1.45832 0.0320733)
(0.439118 1.4601 0.0340438)
(0.439109 1.46028 0.0342447)
(0.438876 1.4652 0.0396872)
(0.439198 1.45816 0.0330594)
(0.439287 1.45631 0.0315912)
(0.439348 1.45502 0.0305692)
(0.439475 1.45236 0.0284568)
(0.43988 1.44406 0.021916)
(0.43971 1.44765 0.0240885)
(0.439602 1.44992 0.0254613)
(0.439592 1.44993 0.0265202)
(0.439678 1.44812 0.0254228)
(0.43971 1.44745 0.0250113)
(0.43988 1.44388 0.0228388)
(0.439966 1.44225 0.0208172)
(0.43997 1.44201 0.0217008)
(0.440048 1.44038 0.0210045)
(0.440075 1.43981 0.0207622)
(0.440265 1.43597 0.018145)
(0.440075 1.43996 0.0198446)
(0.440048 1.44053 0.020088)
(0.440265 1.43584 0.0190705)
(0.440334 1.4344 0.0184583)
(0.440365 1.43374 0.0181785)
(0.440452 1.43203 0.0168129)
(0.440364 1.43388 0.017257)
(0.440333 1.43453 0.0175298)
(0.440452 1.43192 0.0177413)
(0.440605 1.42871 0.0169721)
(0.440643 1.42792 0.0167825)
(0.440741 1.42595 0.0153555)
(0.440643 1.42801 0.0158497)
(0.440605 1.42881 0.0160401)
(0.44074 1.4259 0.0162957)
(0.440839 1.42382 0.0161752)
(0.440913 1.42228 0.0160852)
(0.441046 1.4195 0.0159236)
(0.10936 1.45988 0.0364898)
(0.105711 1.45737 0.0335305)
(0.102313 1.45493 0.0305834)
(0.0995459 1.45252 0.0282856)
(0.0971338 1.45022 0.0263868)
(0.0950057 1.44802 0.0247987)
(0.105206 1.45761 0.0324967)
(0.108691 1.4602 0.0351822)
(0.117457 1.46483 0.0423844)
(0.116708 1.46504 0.0415537)
(0.112467 1.46263 0.0384803)
(0.121319 1.46735 0.0444428)
(0.117076 1.46491 0.0420589)
(0.126351 1.46949 0.0471038)
(0.123778 1.46845 0.0458007)
(0.121308 1.46739 0.0443144)
(0.116739 1.46516 0.0411694)
(0.121319 1.46741 0.0442499)
(0.0994539 1.45257 0.0280275)
(0.105318 1.45748 0.033015)
(0.0916742 1.44395 0.0214788)
(0.08821 1.43983 0.0197743)
(0.0764857 1.41491 0.0140556)
(0.0760771 1.4125 0.0139412)
(0.0854712 1.43588 0.0179082)
)

// edges

203
(
(7 8)
(9 10)
(11 7)
(12 13)
(13 14)
(15 11)
(16 15)
(17 18)
(19 12)
(20 17)
(8 20)
(21 0)
(0 1)
(1 22)
(14 21)
(22 23)
(23 16)
(24 25)
(18 26)
(26 27)
(28 19)
(27 29)
(29 30)
(30 31)
(31 32)
(33 34)
(35 36)
(36 37)
(38 39)
(37 40)
(41 38)
(42 43)
(44 45)
(43 46)
(46 47)
(47 48)
(48 49)
(49 50)
(50 51)
(51 52)
(52 53)
(53 9)
(54 55)
(56 54)
(25 57)
(57 58)
(58 44)
(32 59)
(59 60)
(61 28)
(60 62)
(63 61)
(62 64)
(39 63)
(64 65)
(65 35)
(66 24)
(10 67)
(67 33)
(34 68)
(68 69)
(69 70)
(55 71)
(71 72)
(72 73)
(45 74)
(74 75)
(76 42)
(75 77)
(40 76)
(77 78)
(78 41)
(70 79)
(79 80)
(80 56)
(81 82)
(82 83)
(73 81)
(84 66)
(83 85)
(85 84)
(1 86)
(87 0)
(88 89)
(90 2)
(2 91)
(92 93)
(93 94)
(94 95)
(95 96)
(97 98)
(99 100)
(89 101)
(101 102)
(102 103)
(96 104)
(104 105)
(105 106)
(106 88)
(98 107)
(107 108)
(109 99)
(3 110)
(111 3)
(112 111)
(108 113)
(113 114)
(115 109)
(114 116)
(117 115)
(110 90)
(118 112)
(91 117)
(119 118)
(116 119)
(120 121)
(122 97)
(123 120)
(100 123)
(121 124)
(125 122)
(103 125)
(126 127)
(128 129)
(3 130)
(131 132)
(132 2)
(130 133)
(133 134)
(135 136)
(136 137)
(138 139)
(139 140)
(140 141)
(141 131)
(134 135)
(129 138)
(142 143)
(143 144)
(144 145)
(146 147)
(147 148)
(148 128)
(137 142)
(149 150)
(150 151)
(151 152)
(153 146)
(145 149)
(154 155)
(155 156)
(157 158)
(158 159)
(159 153)
(152 154)
(160 161)
(161 162)
(156 160)
(163 164)
(164 165)
(165 157)
(166 167)
(167 168)
(169 170)
(170 171)
(171 163)
(162 166)
(127 169)
(172 173)
(173 174)
(174 175)
(175 86)
(168 172)
(87 126)
(176 177)
(178 179)
(180 181)
(182 183)
(5 183)
(184 4)
(185 186)
(185 187)
(6 184)
(188 4)
(6 188)
(189 190)
(191 190)
(5 192)
(193 192)
(180 194)
(178 195)
(176 4)
(196 197)
(198 199)
(197 200)
(182 5)
(187 186)
(6 4)
(193 5)
(181 194)
(179 195)
(177 4)
(196 200)
)

// concaveStart mixedStart nonFeatureStart
4 4 7
// internalStart flatStart openStart multipleStart
195 203 203 203
// normals

375
(
(-0 -1 0)
(0.136084 0.00929079 0.990654)
(0 -1 -0)
(-0.934368 0.0501131 0.352768)
(0 -1 -0)
(0.164284 0.00981291 0.986364)
(0 -1 0)
(0.0347103 0.001054 -0.999397)
(0 -1 0)
(0.0188318 -0.000304328 -0.999823)
(0 -1 -0)
(0.164285 0.00996289 0.986363)
(0 -1 -0)
(0.193241 0.0101257 0.981099)
(0 -1 -0)
(0.0718319 0.00900912 0.997376)
(0 -1 -0)
(0.0427178 0.00123678 -0.999086)
(0 -1 0)
(0.103831 0.00927288 0.994552)
(0 -1 -0)
(0.136084 0.00933273 0.990653)
(-0 -1 0)
(0.0073878 0.000483386 -0.999973)
(0.998866 0.0476055 0)
(0 -1 0)
(0.252986 0.0121842 0.967393)
(-0 -1 0)
(0.0188318 0.000712154 -0.999822)
(0 -1 0)
(0.222883 0.011248 0.97478)
(0 -1 0)
(0.222883 0.0111706 0.974781)
(0 -1 0)
(-0.472648 0.0259093 -0.88087)
(-0 -1 0)
(0.0718324 0.00918358 0.997374)
(0 -1 0)
(0.0359435 0.00964343 0.999307)
(-0 -1 0)
(0.0427178 0.0013074 -0.999086)
(0 -1 0)
(0.0359444 0.00938716 0.99931)
(0 -1 0)
(-0.00509276 0.0100851 0.999936)
(0 -1 0)
(-0.0050919 0.0102485 0.999935)
(0 -1 0)
(-0.0505104 0.0111667 0.998661)
(0 -1 -0)
(-0.976432 0.0522148 0.209415)
(0 -1 -0)
(-0.267985 0.0186157 0.963243)
(0 -1 0)
(-0.267988 0.0180976 0.963252)
(-0 -1 0)
(0.0103044 0.00260469 -0.999944)
(0 -1 0)
(-0.32975 0.0208786 0.943837)
(0 -1 0)
(-0.0404308 0.0047632 -0.999171)
(0 -1 -0)
(-0.404334 0.0241956 0.914291)
(0 -1 0)
(-0.335224 0.0189434 -0.941948)
(0 -1 0)
(-0.484277 0.0276188 0.874479)
(0 -1 0)
(-0.484281 0.0276189 0.874477)
(0 -1 0)
(-0.579752 0.032266 0.814154)
(0 -1 -0)
(-0.689696 0.038193 0.723091)
(0 -1 0)
(-0.689709 0.0376924 0.723105)
(0 -1 0)
(-0.779208 0.0422645 0.625339)
(0 -1 -0)
(-0.779208 0.0421952 0.625343)
(0 -1 0)
(-0.865008 0.0467245 0.499578)
(0 -1 0)
(-0.865016 0.0465094 0.499584)
(0 -1 0)
(-0.954519 0.0509212 -0.293771)
(0 -1 0)
(-0.979302 0.0522389 -0.195548)
(0 -1 0)
(-0.472649 0.0258736 -0.880871)
(0 -1 0)
(-0.335224 0.0189617 -0.941948)
(0 -1 0)
(-0.335225 0.0188663 -0.941949)
(0 -1 0)
(-0.0505111 0.0109545 0.998663)
(0 -1 0)
(-0.101668 0.0123999 0.994741)
(-0 -1 0)
(0.0445763 0.00131479 -0.999005)
(0 -1 0)
(-0.101668 0.0124951 0.99474)
(-0 -1 0)
(0.0445763 0.00144397 -0.999005)
(0 -1 0)
(-0.15461 0.0139205 0.987877)
(-0 -1 0)
(0.0103046 0.00265614 -0.999943)
(0 -1 0)
(-0.15461 0.0139205 0.987878)
(0 -1 0)
(-0.209553 0.0157628 0.97767)
(0 -1 0)
(-0.598919 0.0323707 -0.800155)
(0 -1 0)
(-0.934369 0.0500629 0.352773)
(0 -1 0)
(-0.934369 0.0500451 0.352775)
(0 -1 -0)
(-0.976434 0.0521821 0.209415)
(0 -1 0)
(-0.997017 0.0532624 0.0558507)
(0 -1 0)
(-0.99702 0.053222 0.05585)
(0 -1 0)
(-0.954519 0.0509097 -0.293771)
(0 -1 0)
(-0.898292 0.0479361 -0.436776)
(0 -1 0)
(-0.898292 0.0479459 -0.436775)
(0 -1 0)
(-0.218474 0.0129548 -0.975757)
(0 -1 0)
(-0.218474 0.0130765 -0.975755)
(0 -1 -0)
(-0.404337 0.0238332 0.9143)
(0 -1 -0)
(-0.111296 0.00803663 -0.993755)
(0 -1 0)
(-0.329751 0.0206977 0.943841)
(0 -1 0)
(-0.0404296 0.00536672 -0.999168)
(0 -1 -0)
(-0.0404307 0.00473929 -0.999171)
(0 -1 -0)
(-0.997019 0.0532257 0.0558547)
(0 -1 0)
(-0.993498 0.0530008 -0.100763)
(0 -1 0)
(-0.979299 0.0522884 -0.195546)
(0 -1 0)
(-0.82084 0.0438701 -0.56947)
(-0.718546 0.0385739 -0.694408)
(0 -1 0)
(-0.82084 0.0438669 -0.569471)
(0 -1 0)
(-0.598919 0.0323314 -0.800157)
(0 -1 0)
(-0.718548 0.0385373 -0.694409)
(-0.598919 0.0323315 -0.800157)
(0.998866 0.0476055 0)
(-1.46376e-005 0.928485 0.37137)
(-0.0595602 0.140151 0.988337)
(-8.17897e-006 0.928413 0.37155)
(0.999484 0.0298282 0.0119372)
(0.0292321 0.828603 -0.559072)
(5.13413e-005 0.928484 0.371373)
(-0.0379812 0.567949 0.822187)
(9.79166e-005 0.928481 0.371381)
(-0.0382471 0.563649 0.825128)
(-0.000183915 0.92849 0.371357)
(-0.035709 0.60183 0.797826)
(-6.4751e-006 0.928489 0.371359)
(-0.0356118 0.601586 0.798014)
(2.39678e-006 0.928488 0.371363)
(0.00760828 -0.496179 0.868187)
(-2.22788e-006 0.928488 0.371362)
(0.00609691 0.893337 -0.449346)
(2.39682e-005 0.928484 0.371372)
(-0.0679425 -0.234297 0.969788)
(-7.52638e-005 0.928487 0.371364)
(-0.0679175 -0.234334 0.969781)
(3.03505e-005 0.92849 0.371358)
(-0.0233791 -0.3742 0.927053)
(0.000158838 0.928493 0.37135)
(-0.0388044 0.55503 0.830925)
(-4.14891e-006 0.928485 0.37137)
(-0.0388874 0.555215 0.830797)
(-3.66021e-005 0.928489 0.37136)
(-0.0500359 0.365839 0.929332)
(4.02378e-005 0.928485 0.371371)
(-0.0595471 0.140119 0.988342)
(1.24946e-006 0.928485 0.37137)
(0.00756589 -0.527072 0.849787)
(-1.66878e-006 0.928486 0.371368)
(0.00743598 -0.593531 0.804777)
(1.23054e-006 0.928486 0.371367)
(0.0204308 0.847559 -0.530308)
(-1.67205e-005 0.928565 0.371169)
(0.99948 0.029951 0.0119721)
(0.0292341 -0.829291 0.558052)
(1.23869e-005 0.9284 0.371583)
(0.0296638 -0.816018 0.577265)
(1.05969e-006 0.928486 0.371367)
(0.0254903 -0.649996 0.75951)
(3.04723e-006 0.928486 0.371367)
(0.0254886 -0.649996 0.75951)
(8.52073e-007 0.928484 0.371371)
(0.0208687 0.831278 -0.555465)
(7.40758e-007 0.928485 0.371371)
(0.0244244 -0.727182 0.68601)
(-8.50166e-006 0.928483 0.371374)
(0.0275535 0.836587 -0.54714)
(1.22324e-005 0.928401 0.371579)
(0.999483 0.02986 0.011951)
(-3.3415e-006 0.928482 0.371376)
(0.0309397 -0.773637 0.632873)
(2.57449e-005 0.928487 0.371364)
(0.0275847 0.83658 -0.54715)
(5.32025e-006 0.928481 0.37138)
(0.0304935 -0.772986 0.63369)
(-5.98536e-006 0.928482 0.371378)
(0.0236955 -0.767646 0.640435)
(1.33353e-005 0.928484 0.371373)
(-0.00977802 0.910084 -0.414309)
(-2.20791e-005 0.928491 0.371356)
(0.00762212 -0.496178 0.868187)
(2.53226e-006 0.92849 0.371358)
(0.00602937 0.899276 -0.43734)
(-6.34481e-007 0.92849 0.371358)
(0.00609817 0.893335 -0.449349)
(-4.50815e-006 0.928483 0.371374)
(-0.00843703 0.957831 -0.28721)
(-2.20683e-006 0.928485 0.371371)
(-0.0233395 -0.415442 0.90932)
(4.49023e-006 0.928484 0.371373)
(-0.0233427 -0.415441 0.90932)
(0.998869 0.0471403 0.00618445)
(0.0200703 0.0595397 -0.998024)
(0.999282 0.0333405 0.0179811)
(0.028468 0.618887 -0.784964)
(0.999455 0.031085 0.0110753)
(0.0286694 0.828613 -0.559088)
(0.999406 0.0329954 0.00992101)
(0.0439038 -0.828623 0.558082)
(0.99941 0.0328939 0.00988357)
(0.0617162 -0.827456 0.558129)
(0.999129 0.0413141 0.00578307)
(0.0553053 -0.742818 0.667205)
(0.999128 0.0413399 0.00579773)
(0.0649383 -0.742206 0.667018)
(0.999465 0.0269575 0.0185445)
(0.022926 0.742307 -0.669668)
(0.999462 0.0270784 0.0185035)
(0.0277342 0.742201 -0.669603)
(0.999307 0.0356518 0.0106703)
(0.0277338 0.742282 -0.669514)
(0.999452 0.0311875 0.0111061)
(0.0143843 0.828593 -0.559667)
(0.999353 0.0336871 0.0126179)
(0.0553064 -0.742805 0.66722)
(0.999282 0.0333434 0.0179811)
(0.0279119 0.618871 -0.784996)
(0.999047 0.0432892 0.00560264)
(0.08733 -0.617013 0.782092)
(0.999047 0.0432794 0.00561034)
(0.0873291 -0.617024 0.782084)
(0.999047 0.0432893 0.00561496)
(0.0873299 -0.61702 0.782087)
(0.999109 0.0406792 0.0112512)
(0.0254302 0.518635 -0.854618)
(0.999109 0.040684 0.0112518)
(0.0267606 0.518681 -0.854549)
(0.999051 0.0432071 0.00544336)
(0.0238688 0.618823 -0.785168)
(0.999129 0.0413286 0.00576867)
(0.064941 -0.742179 0.667048)
(0.99901 0.0440659 0.00602156)
(0.126145 -0.511574 0.849929)
(0.999009 0.0441064 0.00599081)
(0.126145 -0.511581 0.849925)
(0.99901 0.0440877 0.00598464)
(0.133085 -0.510876 0.849291)
(0.999005 0.0442845 0.00530288)
(0.0205032 0.518521 -0.854819)
(0.999047 0.0432875 0.00561796)
(0.104487 -0.615501 0.781179)
(0.998948 0.045571 0.00509393)
(0.152962 -0.381105 0.911791)
(0.998948 0.0455725 0.00509431)
(0.15296 -0.381148 0.911773)
(0.999013 0.0433141 0.00980553)
(0.023051 0.392582 -0.919428)
(0.999016 0.0432522 0.00986215)
(0.0244421 0.392628 -0.919373)
(0.999014 0.0432889 0.00986542)
(0.0244423 0.392606 -0.919382)
(0.99901 0.0440664 0.00602742)
(0.133086 -0.510872 0.849292)
(0.998944 0.0456889 0.00479911)
(0.165405 -0.37981 0.910157)
(0.998945 0.0456759 0.00479669)
(0.194283 -0.3766 0.905774)
(0.998948 0.0455738 0.0051025)
(0.165404 -0.379829 0.910149)
(0.998917 0.0462492 0.00517917)
(0.0210243 0.233959 -0.972019)
(0.998979 0.0446888 0.00654963)
(0.0178252 0.392424 -0.919612)
(0.998979 0.0446948 0.00655022)
(0.023051 0.392582 -0.919428)
(0.998889 0.0470401 0.00288805)
(0.188045 -0.220596 0.957067)
(0.998889 0.0470337 0.00288709)
(0.200288 -0.21948 0.954837)
(0.998923 0.0459557 0.00637284)
(0.00782189 0.233387 -0.972353)
(0.998924 0.0459254 0.00641901)
(0.0200165 0.233897 -0.972055)
(0.998923 0.0459433 0.00641968)
(0.0210243 0.23395 -0.972021)
(0.998918 0.0457458 0.00835733)
(0.188045 -0.220592 0.957067)
(0.998869 0.0471338 0.00618402)
(0.0200703 0.0595394 -0.998024)
(0.998864 0.0476184 0.00158459)
(0.214548 -0.046502 0.975606)
(0.998863 0.04765 0.00150395)
(0.214548 -0.0464962 0.975606)
(0.998864 0.0476245 0.00150242)
(0.221222 -0.0460978 0.974133)
(0.998861 0.0477227 -0)
(0.238454 -0.0450374 0.970109)
(0.998889 0.0470437 0.00293099)
(0.200288 -0.21947 0.954839)
(0.998871 0.0474963 0)
(0.0190828 0.0594925 -0.998046)
(-0.687213 0.164997 0.70747)
(-0.632398 0.763217 0.13256)
(-0.768041 0.418616 0.484637)
(0.0823652 0.635591 -0.76762)
(-0.784099 0.544767 0.297352)
(-0.543515 0.769372 -0.335646)
(-0.597027 0.802219 0.001679)
(-0.720776 0.349468 0.598627)
(-0.566225 0.823717 0.0296696)
(-0.62869 0.171448 0.758521)
(-0.367486 0.913166 -0.176301)
(-0.645069 0.67345 0.361042)
(-0.0519091 0.818795 -0.571734)
(-0.598707 0.693088 0.401471)
(-0.573408 0.138107 0.807545)
(-0.39922 -0.321723 0.858555)
(-0.649167 0.247029 0.719416)
(-0.59586 0.219909 0.772393)
(-0.479313 0.830372 0.28415)
(-0.265002 0.937716 -0.224639)
(-0.508958 0.819017 0.264901)
(-0.526491 0.848617 0.0515344)
(-0.544015 -0.0400513 0.838119)
(-0.486182 0.869576 0.086392)
(-0.777601 0.523781 0.347836)
(-0.753015 0.366783 0.546295)
(-0.642838 0.101586 0.759236)
(-0.646277 0.683408 -0.339527)
(-0.303951 0.570758 -0.76279)
(-0.900848 0.172011 -0.398603)
(-0.574692 0.136033 -0.806984)
(-0.688931 0.638952 -0.342219)
(-0.630763 0.766711 0.119552)
(-0.597463 0.744972 0.296741)
(-0.551617 0.816346 0.171165)
(-0.771911 0.594286 0.225782)
(-0.764751 0.483966 0.425362)
(-0.700516 0.261598 0.663961)
(-0.727469 0.652556 -0.212037)
)

// normal volume types

375
(
0
0
0
0
0
0
0
0
0
0
0
0
0
0
0
0
0
0
0
0
0
0
0
0
0
0
0
0
0
0
0
0
0
0
0
0
0
0
0
0
0
0
0
0
0
0
0
0
0
0
0
0
0
0
0
0
0
0
0
0
0
0
0
0
0
0
0
0
0
0
0
0
0
0
0
0
0
0
0
0
0
0
0
0
0
0
0
0
0
0
0
0
0
0
0
0
0
0
0
0
0
0
0
0
0
0
0
0
0
0
0
0
0
0
0
0
0
0
0
0
0
0
0
0
0
0
0
0
0
0
0
0
0
0
0
0
0
0
0
0
0
0
0
0
0
0
0
0
0
0
0
0
0
0
0
0
0
0
0
0
0
0
0
0
0
0
0
0
0
0
0
0
0
0
0
0
0
0
0
0
0
0
0
0
0
0
0
0
0
0
0
0
0
0
0
0
0
0
0
0
0
0
0
0
0
0
0
0
0
0
0
0
0
0
0
0
0
0
0
0
0
0
0
0
0
0
0
0
0
0
0
0
0
0
0
0
0
0
0
0
0
0
0
0
0
0
0
0
0
0
0
0
0
0
0
0
0
0
0
0
0
0
0
0
0
0
0
0
0
0
0
0
0
0
0
0
0
0
0
0
0
0
0
0
0
0
0
0
0
0
0
0
0
0
0
0
0
0
0
0
0
0
0
0
0
0
0
0
0
0
0
0
0
0
0
0
0
0
0
0
0
0
0
0
0
0
0
0
0
0
0
0
0
0
0
0
0
0
0
0
0
0
0
0
0
0
0
0
0
0
0
0
0
0
0
0
0
0
0
0
0
0
0
0
0
0
0
0
0
0
0
0
0
0
0
)

// normalDirections

203
(
2(1 -1)
2(1 -1)
2(1 -1)
2(1 -1)
2(1 -1)
2(1 -1)
2(1 -1)
2(1 -1)
2(1 -1)
2(1 -1)
2(1 -1)
2(1 -1)
2(1 -1)
2(1 -1)
2(1 -1)
2(1 -1)
2(1 -1)
2(1 -1)
2(1 -1)
2(1 -1)
2(1 -1)
2(1 -1)
2(1 -1)
2(1 -1)
2(1 -1)
2(1 -1)
2(1 -1)
2(1 -1)
2(1 -1)
2(1 -1)
2(1 -1)
2(1 -1)
2(1 -1)
2(1 -1)
2(1 -1)
2(1 -1)
2(1 -1)
2(1 -1)
2(1 -1)
2(1 -1)
2(1 -1)
2(1 -1)
2(1 -1)
2(1 -1)
2(1 -1)
2(1 -1)
2(1 -1)
2(1 -1)
2(1 -1)
2(1 -1)
2(1 -1)
2(1 -1)
2(1 -1)
2(1 -1)
2(1 -1)
2(1 -1)
2(1 -1)
2(1 -1)
2(1 -1)
2(1 -1)
2(1 -1)
2(1 -1)
2(1 -1)
2(1 -1)
2(1 -1)
2(1 -1)
2(1 -1)
2(1 -1)
2(1 -1)
2(1 -1)
2(1 -1)
2(1 -1)
2(1 -1)
2(1 -1)
2(1 -1)
2(1 -1)
2(1 -1)
2(1 -1)
2(1 -1)
2(1 -1)
2(1 -1)
2(1 -1)
2(1 -1)
2(1 -1)
2(1 -1)
2(1 -1)
2(1 -1)
2(1 -1)
2(1 -1)
2(1 -1)
2(1 -1)
2(1 -1)
2(1 -1)
2(1 -1)
2(1 -1)
2(1 -1)
2(1 -1)
2(1 -1)
2(1 -1)
2(1 -1)
2(1 -1)
2(1 -1)
2(1 -1)
2(1 -1)
2(1 -1)
2(1 -1)
2(1 -1)
2(1 -1)
2(1 -1)
2(1 -1)
2(1 -1)
2(1 -1)
2(1 -1)
2(1 -1)
2(1 -1)
2(1 -1)
2(1 -1)
2(1 -1)
2(1 -1)
2(1 -1)
2(1 -1)
2(1 -1)
2(1 -1)
2(1 -1)
2(1 -1)
2(1 -1)
2(1 -1)
2(1 -1)
2(1 -1)
2(1 -1)
2(1 -1)
2(1 -1)
2(1 -1)
2(1 -1)
2(1 -1)
2(1 -1)
2(1 -1)
2(1 -1)
2(1 -1)
2(1 -1)
2(1 -1)
2(1 -1)
2(1 -1)
2(1 -1)
2(1 -1)
2(1 -1)
2(1 -1)
2(1 -1)
2(1 -1)
2(1 -1)
2(1 -1)
2(1 -1)
2(1 -1)
2(1 -1)
2(1 -1)
2(1 -1)
2(1 -1)
2(1 -1)
2(1 -1)
2(1 -1)
2(1 -1)
2(1 -1)
2(1 -1)
2(1 -1)
2(1 -1)
2(1 -1)
2(1 -1)
2(1 -1)
2(1 -1)
2(1 -1)
2(1 -1)
2(1 -1)
2(1 -1)
2(1 -1)
2(1 -1)
2(1 -1)
2(1 -1)
2(1 -1)
2(1 -1)
2(1 -1)
2(1 -1)
2(1 -1)
2(1 -1)
2(1 -1)
2(1 -1)
2(1 -1)
2(1 -1)
2(1 -1)
2(1 -1)
2(1 -1)
2(1 -1)
2(1 -1)
2(1 -1)
2(1 -1)
2(1 -1)
2(1 -1)
2(1 -1)
2(1 -1)
2(1 -1)
2(1 -1)
2(1 -1)
2(1 -1)
2(1 -1)
)

// edgeNormals

203
(
2(0 1)
2(2 3)
2(4 5)
2(6 7)
2(8 9)
2(10 11)
2(12 13)
2(14 15)
2(16 17)
2(18 19)
2(20 21)
2(22 23)
2(22 24)
2(25 26)
2(27 28)
2(29 30)
2(31 32)
2(33 34)
2(35 36)
2(37 38)
2(39 40)
2(41 42)
2(43 44)
2(45 46)
2(47 48)
2(49 50)
2(51 52)
2(53 54)
2(55 56)
2(57 58)
2(59 60)
2(61 62)
2(63 64)
2(65 66)
2(67 68)
2(69 70)
2(71 72)
2(73 74)
2(75 76)
2(77 78)
2(79 80)
2(81 82)
2(83 84)
2(85 86)
2(87 88)
2(89 90)
2(91 92)
2(93 94)
2(95 96)
2(97 98)
2(99 100)
2(101 102)
2(103 104)
2(105 106)
2(107 108)
2(109 110)
2(111 112)
2(113 114)
2(115 116)
2(117 118)
2(119 120)
2(121 122)
2(123 124)
2(125 126)
2(127 128)
2(129 130)
2(131 132)
2(133 134)
2(135 136)
2(137 138)
2(139 140)
2(141 142)
2(143 144)
2(145 146)
2(147 148)
2(149 150)
2(149 151)
2(152 153)
2(154 155)
2(156 157)
2(156 158)
2(26 159)
2(23 24)
2(160 161)
2(162 163)
2(162 164)
2(165 166)
2(167 168)
2(169 170)
2(171 172)
2(173 174)
2(175 176)
2(177 178)
2(179 180)
2(181 182)
2(183 184)
2(185 186)
2(187 188)
2(189 190)
2(191 192)
2(193 194)
2(195 196)
2(197 198)
2(197 199)
2(200 201)
2(202 203)
2(204 205)
2(206 207)
2(208 209)
2(210 211)
2(212 213)
2(214 215)
2(216 217)
2(218 219)
2(220 221)
2(222 223)
2(224 225)
2(226 227)
2(228 229)
2(230 231)
2(232 233)
2(234 235)
2(236 237)
2(238 239)
2(198 199)
2(240 241)
2(163 164)
2(242 243)
2(244 245)
2(246 247)
2(248 249)
2(250 251)
2(252 253)
2(254 255)
2(256 257)
2(258 259)
2(260 261)
2(262 263)
2(264 265)
2(266 267)
2(268 269)
2(270 271)
2(272 273)
2(274 275)
2(276 277)
2(278 279)
2(280 281)
2(282 283)
2(284 285)
2(286 287)
2(288 289)
2(290 291)
2(292 293)
2(294 295)
2(296 297)
2(298 299)
2(300 301)
2(302 303)
2(304 305)
2(306 307)
2(308 309)
2(310 311)
2(312 313)
2(314 315)
2(316 317)
2(318 319)
2(320 321)
2(322 323)
2(324 325)
2(326 327)
2(328 329)
2(330 331)
2(332 333)
2(334 335)
2(336 337)
2(338 339)
2(340 341)
2(342 343)
2(343 344)
2(345 346)
2(347 348)
2(348 349)
2(350 346)
2(351 352)
2(351 353)
2(354 355)
2(355 356)
2(357 358)
2(358 359)
2(341 360)
2(339 361)
2(337 362)
2(363 364)
2(365 366)
2(367 364)
2(343 368)
2(348 369)
2(346 351)
2(370 358)
2(371 341)
2(372 339)
2(373 337)
2(364 374)
)

// featurePointNormals

7
(
3(22 23 24)
3(22 24 26)
3(162 163 164)
3(197 198 199)
7(345 346 351 352 337 362 373)
6(343 344 357 358 368 370)
4(350 346 351 353)
)

// featurePointEdges

7
(
3(11 82 12)
3(13 81 12)
3(84 126 85)
3(102 124 103)
5(183 197 179 191 201)
4(195 198 187 178)
3(182 197 184)
)

// regionEdges
0()


// ************************************************************************* //
